
---------- Begin Simulation Statistics ----------
final_tick                                84346958000                       # Number of ticks from beginning of simulation (restored from checkpoints and never reset)
host_inst_rate                                1312413                       # Simulator instruction rate (inst/s)
host_mem_usage                                 823268                       # Number of bytes of host memory used
host_op_rate                                  1699951                       # Simulator op (including micro ops) rate (op/s)
host_seconds                                    76.20                       # Real time elapsed on the host
host_tick_rate                             1106977481                       # Simulator tick rate (ticks/s)
sim_freq                                 1000000000000                       # Frequency of simulated ticks
sim_insts                                   100000000                       # Number of instructions simulated
sim_ops                                     129528977                       # Number of ops (including micro ops) simulated
sim_seconds                                  0.084347                       # Number of seconds simulated
sim_ticks                                 84346958000                       # Number of ticks simulated
system.clk_domain.clock                          1000                       # Clock period in ticks
system.cpu.Branches                           5618465                       # Number of branches fetched
system.cpu.apic_clk_domain.clock                 8000                       # Clock period in ticks
system.cpu.committedInsts                   100000000                       # Number of instructions committed
system.cpu.committedOps                     129528977                       # Number of ops (including micro ops) committed
system.cpu.dcache.ReadReq_accesses::.cpu.data     43799664                       # number of ReadReq accesses(hits+misses)
system.cpu.dcache.ReadReq_accesses::total     43799664                       # number of ReadReq accesses(hits+misses)
system.cpu.dcache.ReadReq_hits::.cpu.data     43798644                       # number of ReadReq hits
system.cpu.dcache.ReadReq_hits::total        43798644                       # number of ReadReq hits
system.cpu.dcache.ReadReq_miss_rate::.cpu.data     0.000023                       # miss rate for ReadReq accesses
system.cpu.dcache.ReadReq_miss_rate::total     0.000023                       # miss rate for ReadReq accesses
system.cpu.dcache.ReadReq_misses::.cpu.data         1020                       # number of ReadReq misses
system.cpu.dcache.ReadReq_misses::total          1020                       # number of ReadReq misses
system.cpu.dcache.SoftPFReq_accesses::.cpu.data         4638                       # number of SoftPFReq accesses(hits+misses)
system.cpu.dcache.SoftPFReq_accesses::total         4638                       # number of SoftPFReq accesses(hits+misses)
system.cpu.dcache.SoftPFReq_hits::.cpu.data         3718                       # number of SoftPFReq hits
system.cpu.dcache.SoftPFReq_hits::total          3718                       # number of SoftPFReq hits
system.cpu.dcache.SoftPFReq_miss_rate::.cpu.data     0.198361                       # miss rate for SoftPFReq accesses
system.cpu.dcache.SoftPFReq_miss_rate::total     0.198361                       # miss rate for SoftPFReq accesses
system.cpu.dcache.SoftPFReq_misses::.cpu.data          920                       # number of SoftPFReq misses
system.cpu.dcache.SoftPFReq_misses::total          920                       # number of SoftPFReq misses
system.cpu.dcache.WriteReq_accesses::.cpu.data      7217742                       # number of WriteReq accesses(hits+misses)
system.cpu.dcache.WriteReq_accesses::total      7217742                       # number of WriteReq accesses(hits+misses)
system.cpu.dcache.WriteReq_hits::.cpu.data      7213986                       # number of WriteReq hits
system.cpu.dcache.WriteReq_hits::total        7213986                       # number of WriteReq hits
system.cpu.dcache.WriteReq_miss_rate::.cpu.data     0.000520                       # miss rate for WriteReq accesses
system.cpu.dcache.WriteReq_miss_rate::total     0.000520                       # miss rate for WriteReq accesses
system.cpu.dcache.WriteReq_misses::.cpu.data         3756                       # number of WriteReq misses
system.cpu.dcache.WriteReq_misses::total         3756                       # number of WriteReq misses
system.cpu.dcache.avg_blocked_cycles::no_mshrs          nan                       # average number of cycles each access was blocked
system.cpu.dcache.avg_blocked_cycles::no_targets          nan                       # average number of cycles each access was blocked
system.cpu.dcache.blocked::no_mshrs                 0                       # number of cycles access was blocked
system.cpu.dcache.blocked::no_targets               0                       # number of cycles access was blocked
system.cpu.dcache.blocked_cycles::no_mshrs            0                       # number of cycles access was blocked
system.cpu.dcache.blocked_cycles::no_targets            0                       # number of cycles access was blocked
system.cpu.dcache.demand_accesses::.cpu.data     51017406                       # number of demand (read+write) accesses
system.cpu.dcache.demand_accesses::total     51017406                       # number of demand (read+write) accesses
system.cpu.dcache.demand_hits::.cpu.data     51012630                       # number of demand (read+write) hits
system.cpu.dcache.demand_hits::total         51012630                       # number of demand (read+write) hits
system.cpu.dcache.demand_miss_rate::.cpu.data     0.000094                       # miss rate for demand accesses
system.cpu.dcache.demand_miss_rate::total     0.000094                       # miss rate for demand accesses
system.cpu.dcache.demand_misses::.cpu.data         4776                       # number of demand (read+write) misses
system.cpu.dcache.demand_misses::total           4776                       # number of demand (read+write) misses
system.cpu.dcache.overall_accesses::.cpu.data     51022044                       # number of overall (read+write) accesses
system.cpu.dcache.overall_accesses::total     51022044                       # number of overall (read+write) accesses
system.cpu.dcache.overall_hits::.cpu.data     51016348                       # number of overall hits
system.cpu.dcache.overall_hits::total        51016348                       # number of overall hits
system.cpu.dcache.overall_miss_rate::.cpu.data     0.000112                       # miss rate for overall accesses
system.cpu.dcache.overall_miss_rate::total     0.000112                       # miss rate for overall accesses
system.cpu.dcache.overall_misses::.cpu.data         5696                       # number of overall misses
system.cpu.dcache.overall_misses::total          5696                       # number of overall misses
system.cpu.dcache.pwrStateResidencyTicks::UNDEFINED  84346958000                       # Cumulative time (in ticks) in various power states
system.cpu.dcache.replacements                   1602                       # number of replacements
system.cpu.dcache.tags.age_task_id_blocks_1024::2            6                       # Occupied blocks per task id
system.cpu.dcache.tags.age_task_id_blocks_1024::3           74                       # Occupied blocks per task id
system.cpu.dcache.tags.age_task_id_blocks_1024::4         4014                       # Occupied blocks per task id
system.cpu.dcache.tags.avg_refs           8957.521770                       # Average number of references to valid blocks.
system.cpu.dcache.tags.data_accesses        102049784                       # Number of data accesses
system.cpu.dcache.tags.occ_blocks::.cpu.data  3533.012913                       # Average occupied blocks per requestor
system.cpu.dcache.tags.occ_percent::.cpu.data     0.862552                       # Average percentage of cache occupancy
system.cpu.dcache.tags.occ_percent::total     0.862552                       # Average percentage of cache occupancy
system.cpu.dcache.tags.occ_task_id_blocks::1024         4094                       # Occupied blocks per task id
system.cpu.dcache.tags.occ_task_id_percent::1024     0.999512                       # Percentage of cache occupancy per task id
system.cpu.dcache.tags.pwrStateResidencyTicks::UNDEFINED  84346958000                       # Cumulative time (in ticks) in various power states
system.cpu.dcache.tags.sampled_refs              5696                       # Sample count of references to valid blocks.
system.cpu.dcache.tags.tag_accesses         102049784                       # Number of tag accesses
system.cpu.dcache.tags.tagsinuse          3533.012913                       # Cycle average of tags in use
system.cpu.dcache.tags.total_refs            51022044                       # Total number of references to valid blocks.
system.cpu.dcache.tags.warmup_cycle              1000                       # Cycle when the warmup percentage was hit.
system.cpu.dcache.writebacks::.writebacks          986                       # number of writebacks
system.cpu.dcache.writebacks::total               986                       # number of writebacks
system.cpu.dtb.pwrStateResidencyTicks::UNDEFINED  84346958000                       # Cumulative time (in ticks) in various power states
system.cpu.dtb.rdAccesses                    43804302                       # TLB accesses on read requests
system.cpu.dtb.rdMisses                            79                       # TLB misses on read requests
system.cpu.dtb.walker.pwrStateResidencyTicks::UNDEFINED  84346958000                       # Cumulative time (in ticks) in various power states
system.cpu.dtb.wrAccesses                     7217742                       # TLB accesses on write requests
system.cpu.dtb.wrMisses                            72                       # TLB misses on write requests
system.cpu.dtb_walker_cache.avg_blocked_cycles::no_mshrs          nan                       # average number of cycles each access was blocked
system.cpu.dtb_walker_cache.avg_blocked_cycles::no_targets          nan                       # average number of cycles each access was blocked
system.cpu.dtb_walker_cache.blocked::no_mshrs            0                       # number of cycles access was blocked
system.cpu.dtb_walker_cache.blocked::no_targets            0                       # number of cycles access was blocked
system.cpu.dtb_walker_cache.blocked_cycles::no_mshrs            0                       # number of cycles access was blocked
system.cpu.dtb_walker_cache.blocked_cycles::no_targets            0                       # number of cycles access was blocked
system.cpu.dtb_walker_cache.pwrStateResidencyTicks::UNDEFINED  84346958000                       # Cumulative time (in ticks) in various power states
system.cpu.dtb_walker_cache.replacements            0                       # number of replacements
system.cpu.dtb_walker_cache.tags.avg_refs          nan                       # Average number of references to valid blocks.
system.cpu.dtb_walker_cache.tags.data_accesses            0                       # Number of data accesses
system.cpu.dtb_walker_cache.tags.pwrStateResidencyTicks::UNDEFINED  84346958000                       # Cumulative time (in ticks) in various power states
system.cpu.dtb_walker_cache.tags.sampled_refs            0                       # Sample count of references to valid blocks.
system.cpu.dtb_walker_cache.tags.tag_accesses            0                       # Number of tag accesses
system.cpu.dtb_walker_cache.tags.tagsinuse            0                       # Cycle average of tags in use
system.cpu.dtb_walker_cache.tags.total_refs            0                       # Total number of references to valid blocks.
system.cpu.dtb_walker_cache.tags.warmup_cycle            0                       # Cycle when the warmup percentage was hit.
system.cpu.icache.ReadReq_accesses::.cpu.inst    139165060                       # number of ReadReq accesses(hits+misses)
system.cpu.icache.ReadReq_accesses::total    139165060                       # number of ReadReq accesses(hits+misses)
system.cpu.icache.ReadReq_hits::.cpu.inst    139162993                       # number of ReadReq hits
system.cpu.icache.ReadReq_hits::total       139162993                       # number of ReadReq hits
system.cpu.icache.ReadReq_miss_rate::.cpu.inst     0.000015                       # miss rate for ReadReq accesses
system.cpu.icache.ReadReq_miss_rate::total     0.000015                       # miss rate for ReadReq accesses
system.cpu.icache.ReadReq_misses::.cpu.inst         2067                       # number of ReadReq misses
system.cpu.icache.ReadReq_misses::total          2067                       # number of ReadReq misses
system.cpu.icache.avg_blocked_cycles::no_mshrs          nan                       # average number of cycles each access was blocked
system.cpu.icache.avg_blocked_cycles::no_targets          nan                       # average number of cycles each access was blocked
system.cpu.icache.blocked::no_mshrs                 0                       # number of cycles access was blocked
system.cpu.icache.blocked::no_targets               0                       # number of cycles access was blocked
system.cpu.icache.blocked_cycles::no_mshrs            0                       # number of cycles access was blocked
system.cpu.icache.blocked_cycles::no_targets            0                       # number of cycles access was blocked
system.cpu.icache.demand_accesses::.cpu.inst    139165060                       # number of demand (read+write) accesses
system.cpu.icache.demand_accesses::total    139165060                       # number of demand (read+write) accesses
system.cpu.icache.demand_hits::.cpu.inst    139162993                       # number of demand (read+write) hits
system.cpu.icache.demand_hits::total        139162993                       # number of demand (read+write) hits
system.cpu.icache.demand_miss_rate::.cpu.inst     0.000015                       # miss rate for demand accesses
system.cpu.icache.demand_miss_rate::total     0.000015                       # miss rate for demand accesses
system.cpu.icache.demand_misses::.cpu.inst         2067                       # number of demand (read+write) misses
system.cpu.icache.demand_misses::total           2067                       # number of demand (read+write) misses
system.cpu.icache.overall_accesses::.cpu.inst    139165060                       # number of overall (read+write) accesses
system.cpu.icache.overall_accesses::total    139165060                       # number of overall (read+write) accesses
system.cpu.icache.overall_hits::.cpu.inst    139162993                       # number of overall hits
system.cpu.icache.overall_hits::total       139162993                       # number of overall hits
system.cpu.icache.overall_miss_rate::.cpu.inst     0.000015                       # miss rate for overall accesses
system.cpu.icache.overall_miss_rate::total     0.000015                       # miss rate for overall accesses
system.cpu.icache.overall_misses::.cpu.inst         2067                       # number of overall misses
system.cpu.icache.overall_misses::total          2067                       # number of overall misses
system.cpu.icache.pwrStateResidencyTicks::UNDEFINED  84346958000                       # Cumulative time (in ticks) in various power states
system.cpu.icache.replacements                   1163                       # number of replacements
system.cpu.icache.tags.age_task_id_blocks_1024::2            5                       # Occupied blocks per task id
system.cpu.icache.tags.age_task_id_blocks_1024::3            3                       # Occupied blocks per task id
system.cpu.icache.tags.age_task_id_blocks_1024::4          896                       # Occupied blocks per task id
system.cpu.icache.tags.avg_refs          67327.073053                       # Average number of references to valid blocks.
system.cpu.icache.tags.data_accesses        278332187                       # Number of data accesses
system.cpu.icache.tags.occ_blocks::.cpu.inst   902.163587                       # Average occupied blocks per requestor
system.cpu.icache.tags.occ_percent::.cpu.inst     0.881019                       # Average percentage of cache occupancy
system.cpu.icache.tags.occ_percent::total     0.881019                       # Average percentage of cache occupancy
system.cpu.icache.tags.occ_task_id_blocks::1024          904                       # Occupied blocks per task id
system.cpu.icache.tags.occ_task_id_percent::1024     0.882812                       # Percentage of cache occupancy per task id
system.cpu.icache.tags.pwrStateResidencyTicks::UNDEFINED  84346958000                       # Cumulative time (in ticks) in various power states
system.cpu.icache.tags.sampled_refs              2067                       # Sample count of references to valid blocks.
system.cpu.icache.tags.tag_accesses         278332187                       # Number of tag accesses
system.cpu.icache.tags.tagsinuse           902.163587                       # Cycle average of tags in use
system.cpu.icache.tags.total_refs           139165060                       # Total number of references to valid blocks.
system.cpu.icache.tags.warmup_cycle                 0                       # Cycle when the warmup percentage was hit.
system.cpu.icache.writebacks::.writebacks         1163                       # number of writebacks
system.cpu.icache.writebacks::total              1163                       # number of writebacks
system.cpu.idle_fraction                            0                       # Percentage of idle cycles
system.cpu.interrupts.pwrStateResidencyTicks::UNDEFINED  84346958000                       # Cumulative time (in ticks) in various power states
system.cpu.itb.pwrStateResidencyTicks::UNDEFINED  84346958000                       # Cumulative time (in ticks) in various power states
system.cpu.itb.rdAccesses                           0                       # TLB accesses on read requests
system.cpu.itb.rdMisses                             0                       # TLB misses on read requests
system.cpu.itb.walker.pwrStateResidencyTicks::UNDEFINED  84346958000                       # Cumulative time (in ticks) in various power states
system.cpu.itb.wrAccesses                   139165060                       # TLB accesses on write requests
system.cpu.itb.wrMisses                            94                       # TLB misses on write requests
system.cpu.itb_walker_cache.avg_blocked_cycles::no_mshrs          nan                       # average number of cycles each access was blocked
system.cpu.itb_walker_cache.avg_blocked_cycles::no_targets          nan                       # average number of cycles each access was blocked
system.cpu.itb_walker_cache.blocked::no_mshrs            0                       # number of cycles access was blocked
system.cpu.itb_walker_cache.blocked::no_targets            0                       # number of cycles access was blocked
system.cpu.itb_walker_cache.blocked_cycles::no_mshrs            0                       # number of cycles access was blocked
system.cpu.itb_walker_cache.blocked_cycles::no_targets            0                       # number of cycles access was blocked
system.cpu.itb_walker_cache.pwrStateResidencyTicks::UNDEFINED  84346958000                       # Cumulative time (in ticks) in various power states
system.cpu.itb_walker_cache.replacements            0                       # number of replacements
system.cpu.itb_walker_cache.tags.avg_refs          nan                       # Average number of references to valid blocks.
system.cpu.itb_walker_cache.tags.data_accesses            0                       # Number of data accesses
system.cpu.itb_walker_cache.tags.pwrStateResidencyTicks::UNDEFINED  84346958000                       # Cumulative time (in ticks) in various power states
system.cpu.itb_walker_cache.tags.sampled_refs            0                       # Sample count of references to valid blocks.
system.cpu.itb_walker_cache.tags.tag_accesses            0                       # Number of tag accesses
system.cpu.itb_walker_cache.tags.tagsinuse            0                       # Cycle average of tags in use
system.cpu.itb_walker_cache.tags.total_refs            0                       # Total number of references to valid blocks.
system.cpu.itb_walker_cache.tags.warmup_cycle            0                       # Cycle when the warmup percentage was hit.
system.cpu.not_idle_fraction                        1                       # Percentage of non-idle cycles
system.cpu.numCycles                        168694037                       # number of cpu cycles simulated
system.cpu.numWorkItemsCompleted                    0                       # number of work items this cpu completed
system.cpu.numWorkItemsStarted                      0                       # number of work items this cpu started
system.cpu.num_busy_cycles                  168694037                       # Number of busy cycles
system.cpu.num_cc_register_reads             37965525                       # number of times the CC registers were read
system.cpu.num_cc_register_writes            52208604                       # number of times the CC registers were written
system.cpu.num_conditional_control_insts      5138085                       # number of instructions that are conditional controls
system.cpu.num_fp_alu_accesses                5707232                       # Number of float alu accesses
system.cpu.num_fp_insts                       5707232                       # number of float instructions
system.cpu.num_fp_register_reads              4658546                       # number of times the floating registers were read
system.cpu.num_fp_register_writes             4885667                       # number of times the floating registers were written
system.cpu.num_func_calls                      316251                       # number of times a function call or return occured
system.cpu.num_idle_cycles                          0                       # Number of idle cycles
system.cpu.num_int_alu_accesses             125550615                       # Number of integer alu accesses
system.cpu.num_int_insts                    125550615                       # number of integer instructions
system.cpu.num_int_register_reads           294168937                       # number of times the integer registers were read
system.cpu.num_int_register_writes          114123331                       # number of times the integer registers were written
system.cpu.num_load_insts                    43803355                       # Number of load instructions
system.cpu.num_mem_refs                      51021029                       # number of memory refs
system.cpu.num_store_insts                    7217674                       # Number of store instructions
system.cpu.num_vec_alu_accesses                     0                       # Number of vector alu accesses
system.cpu.num_vec_insts                            0                       # number of vector instructions
system.cpu.num_vec_register_reads                   0                       # number of times the vector registers were read
system.cpu.num_vec_register_writes                  0                       # number of times the vector registers were written
system.cpu.op_class::No_OpClass                350171      0.27%      0.27% # Class of executed instruction
system.cpu.op_class::IntAlu                  73095134     56.43%     56.70% # Class of executed instruction
system.cpu.op_class::IntMult                   134101      0.10%     56.81% # Class of executed instruction
system.cpu.op_class::IntDiv                   1267028      0.98%     57.78% # Class of executed instruction
system.cpu.op_class::FloatAdd                 1914697      1.48%     59.26% # Class of executed instruction
system.cpu.op_class::FloatCmp                       0      0.00%     59.26% # Class of executed instruction
system.cpu.op_class::FloatCvt                       0      0.00%     59.26% # Class of executed instruction
system.cpu.op_class::FloatMult                      0      0.00%     59.26% # Class of executed instruction
system.cpu.op_class::FloatMultAcc                   0      0.00%     59.26% # Class of executed instruction
system.cpu.op_class::FloatDiv                       0      0.00%     59.26% # Class of executed instruction
system.cpu.op_class::FloatMisc                      0      0.00%     59.26% # Class of executed instruction
system.cpu.op_class::FloatSqrt                      0      0.00%     59.26% # Class of executed instruction
system.cpu.op_class::SimdAdd                      450      0.00%     59.26% # Class of executed instruction
system.cpu.op_class::SimdAddAcc                     0      0.00%     59.26% # Class of executed instruction
system.cpu.op_class::SimdAlu                   162810      0.13%     59.39% # Class of executed instruction
system.cpu.op_class::SimdCmp                      204      0.00%     59.39% # Class of executed instruction
system.cpu.op_class::SimdCvt                   180752      0.14%     59.53% # Class of executed instruction
system.cpu.op_class::SimdMisc                  401209      0.31%     59.84% # Class of executed instruction
system.cpu.op_class::SimdMult                       0      0.00%     59.84% # Class of executed instruction
system.cpu.op_class::SimdMultAcc                    0      0.00%     59.84% # Class of executed instruction
system.cpu.op_class::SimdShift                    110      0.00%     59.84% # Class of executed instruction
system.cpu.op_class::SimdShiftAcc                   0      0.00%     59.84% # Class of executed instruction
system.cpu.op_class::SimdDiv                        0      0.00%     59.84% # Class of executed instruction
system.cpu.op_class::SimdSqrt                       0      0.00%     59.84% # Class of executed instruction
system.cpu.op_class::SimdFloatAdd              339759      0.26%     60.10% # Class of executed instruction
system.cpu.op_class::SimdFloatAlu                   0      0.00%     60.10% # Class of executed instruction
system.cpu.op_class::SimdFloatCmp                   0      0.00%     60.10% # Class of executed instruction
system.cpu.op_class::SimdFloatCvt              545692      0.42%     60.52% # Class of executed instruction
system.cpu.op_class::SimdFloatDiv               63421      0.05%     60.57% # Class of executed instruction
system.cpu.op_class::SimdFloatMisc                  0      0.00%     60.57% # Class of executed instruction
system.cpu.op_class::SimdFloatMult              52410      0.04%     60.61% # Class of executed instruction
system.cpu.op_class::SimdFloatMultAcc               0      0.00%     60.61% # Class of executed instruction
system.cpu.op_class::SimdFloatSqrt                  0      0.00%     60.61% # Class of executed instruction
system.cpu.op_class::SimdReduceAdd                  0      0.00%     60.61% # Class of executed instruction
system.cpu.op_class::SimdReduceAlu                  0      0.00%     60.61% # Class of executed instruction
system.cpu.op_class::SimdReduceCmp                  0      0.00%     60.61% # Class of executed instruction
system.cpu.op_class::SimdFloatReduceAdd             0      0.00%     60.61% # Class of executed instruction
system.cpu.op_class::SimdFloatReduceCmp             0      0.00%     60.61% # Class of executed instruction
system.cpu.op_class::SimdAes                        0      0.00%     60.61% # Class of executed instruction
system.cpu.op_class::SimdAesMix                     0      0.00%     60.61% # Class of executed instruction
system.cpu.op_class::SimdSha1Hash                   0      0.00%     60.61% # Class of executed instruction
system.cpu.op_class::SimdSha1Hash2                  0      0.00%     60.61% # Class of executed instruction
system.cpu.op_class::SimdSha256Hash                 0      0.00%     60.61% # Class of executed instruction
system.cpu.op_class::SimdSha256Hash2                0      0.00%     60.61% # Class of executed instruction
system.cpu.op_class::SimdShaSigma2                  0      0.00%     60.61% # Class of executed instruction
system.cpu.op_class::SimdShaSigma3                  0      0.00%     60.61% # Class of executed instruction
system.cpu.op_class::SimdPredAlu                    0      0.00%     60.61% # Class of executed instruction
system.cpu.op_class::MemRead                 42319788     32.67%     93.28% # Class of executed instruction
system.cpu.op_class::MemWrite                 6838361      5.28%     98.56% # Class of executed instruction
system.cpu.op_class::FloatMemRead             1483567      1.15%     99.71% # Class of executed instruction
system.cpu.op_class::FloatMemWrite             379313      0.29%    100.00% # Class of executed instruction
system.cpu.op_class::IprAccess                      0      0.00%    100.00% # Class of executed instruction
system.cpu.op_class::InstPrefetch                   0      0.00%    100.00% # Class of executed instruction
system.cpu.op_class::total                  129528977                       # Class of executed instruction
system.cpu.pwrStateResidencyTicks::ON     84346958000                       # Cumulative time (in ticks) in various power states
system.cpu.workload.numSyscalls                    34                       # Number of system calls
system.cpu_clk_domain.clock                       500                       # Clock period in ticks
system.cpu_voltage_domain.voltage                   1                       # Voltage in Volts
system.l2.ReadCleanReq_accesses::.cpu.inst         2067                       # number of ReadCleanReq accesses(hits+misses)
system.l2.ReadCleanReq_accesses::total           2067                       # number of ReadCleanReq accesses(hits+misses)
system.l2.ReadCleanReq_hits::.cpu.inst            713                       # number of ReadCleanReq hits
system.l2.ReadCleanReq_hits::total                713                       # number of ReadCleanReq hits
system.l2.ReadCleanReq_miss_rate::.cpu.inst     0.655056                       # miss rate for ReadCleanReq accesses
system.l2.ReadCleanReq_miss_rate::total      0.655056                       # miss rate for ReadCleanReq accesses
system.l2.ReadCleanReq_misses::.cpu.inst         1354                       # number of ReadCleanReq misses
system.l2.ReadCleanReq_misses::total             1354                       # number of ReadCleanReq misses
system.l2.ReadExReq_accesses::.cpu.data          3756                       # number of ReadExReq accesses(hits+misses)
system.l2.ReadExReq_accesses::total              3756                       # number of ReadExReq accesses(hits+misses)
system.l2.ReadExReq_hits::.cpu.data               277                       # number of ReadExReq hits
system.l2.ReadExReq_hits::total                   277                       # number of ReadExReq hits
system.l2.ReadExReq_miss_rate::.cpu.data     0.926251                       # miss rate for ReadExReq accesses
system.l2.ReadExReq_miss_rate::total         0.926251                       # miss rate for ReadExReq accesses
system.l2.ReadExReq_misses::.cpu.data            3479                       # number of ReadExReq misses
system.l2.ReadExReq_misses::total                3479                       # number of ReadExReq misses
system.l2.ReadSharedReq_accesses::.cpu.data         1940                       # number of ReadSharedReq accesses(hits+misses)
system.l2.ReadSharedReq_accesses::total          1940                       # number of ReadSharedReq accesses(hits+misses)
system.l2.ReadSharedReq_hits::.cpu.data           367                       # number of ReadSharedReq hits
system.l2.ReadSharedReq_hits::total               367                       # number of ReadSharedReq hits
system.l2.ReadSharedReq_miss_rate::.cpu.data     0.810825                       # miss rate for ReadSharedReq accesses
system.l2.ReadSharedReq_miss_rate::total     0.810825                       # miss rate for ReadSharedReq accesses
system.l2.ReadSharedReq_misses::.cpu.data         1573                       # number of ReadSharedReq misses
system.l2.ReadSharedReq_misses::total            1573                       # number of ReadSharedReq misses
system.l2.WritebackClean_accesses::.writebacks         1162                       # number of WritebackClean accesses(hits+misses)
system.l2.WritebackClean_accesses::total         1162                       # number of WritebackClean accesses(hits+misses)
system.l2.WritebackClean_hits::.writebacks         1162                       # number of WritebackClean hits
system.l2.WritebackClean_hits::total             1162                       # number of WritebackClean hits
system.l2.WritebackDirty_accesses::.writebacks          986                       # number of WritebackDirty accesses(hits+misses)
system.l2.WritebackDirty_accesses::total          986                       # number of WritebackDirty accesses(hits+misses)
system.l2.WritebackDirty_hits::.writebacks          986                       # number of WritebackDirty hits
system.l2.WritebackDirty_hits::total              986                       # number of WritebackDirty hits
system.l2.avg_blocked_cycles::no_mshrs            nan                       # average number of cycles each access was blocked
system.l2.avg_blocked_cycles::no_targets          nan                       # average number of cycles each access was blocked
system.l2.blocked::no_mshrs                         0                       # number of cycles access was blocked
system.l2.blocked::no_targets                       0                       # number of cycles access was blocked
system.l2.blocked_cycles::no_mshrs                  0                       # number of cycles access was blocked
system.l2.blocked_cycles::no_targets                0                       # number of cycles access was blocked
system.l2.demand_accesses::.cpu.inst             2067                       # number of demand (read+write) accesses
system.l2.demand_accesses::.cpu.data             5696                       # number of demand (read+write) accesses
system.l2.demand_accesses::total                 7763                       # number of demand (read+write) accesses
system.l2.demand_hits::.cpu.inst                  713                       # number of demand (read+write) hits
system.l2.demand_hits::.cpu.data                  644                       # number of demand (read+write) hits
system.l2.demand_hits::total                     1357                       # number of demand (read+write) hits
system.l2.demand_miss_rate::.cpu.inst        0.655056                       # miss rate for demand accesses
system.l2.demand_miss_rate::.cpu.data        0.886938                       # miss rate for demand accesses
system.l2.demand_miss_rate::total            0.825196                       # miss rate for demand accesses
system.l2.demand_misses::.cpu.inst               1354                       # number of demand (read+write) misses
system.l2.demand_misses::.cpu.data               5052                       # number of demand (read+write) misses
system.l2.demand_misses::total                   6406                       # number of demand (read+write) misses
system.l2.overall_accesses::.cpu.inst            2067                       # number of overall (read+write) accesses
system.l2.overall_accesses::.cpu.data            5696                       # number of overall (read+write) accesses
system.l2.overall_accesses::total                7763                       # number of overall (read+write) accesses
system.l2.overall_hits::.cpu.inst                 713                       # number of overall hits
system.l2.overall_hits::.cpu.data                 644                       # number of overall hits
system.l2.overall_hits::total                    1357                       # number of overall hits
system.l2.overall_miss_rate::.cpu.inst       0.655056                       # miss rate for overall accesses
system.l2.overall_miss_rate::.cpu.data       0.886938                       # miss rate for overall accesses
system.l2.overall_miss_rate::total           0.825196                       # miss rate for overall accesses
system.l2.overall_misses::.cpu.inst              1354                       # number of overall misses
system.l2.overall_misses::.cpu.data              5052                       # number of overall misses
system.l2.overall_misses::total                  6406                       # number of overall misses
system.l2.pwrStateResidencyTicks::UNDEFINED  84346958000                       # Cumulative time (in ticks) in various power states
system.l2.replacements                            500                       # number of replacements
system.l2.tags.age_task_id_blocks_1024::3           33                       # Occupied blocks per task id
system.l2.tags.age_task_id_blocks_1024::4         5990                       # Occupied blocks per task id
system.l2.tags.avg_refs                      1.604323                       # Average number of references to valid blocks.
system.l2.tags.data_accesses                    17050                       # Number of data accesses
system.l2.tags.occ_blocks::.writebacks      52.698026                       # Average occupied blocks per requestor
system.l2.tags.occ_blocks::.cpu.inst      1112.258370                       # Average occupied blocks per requestor
system.l2.tags.occ_blocks::.cpu.data      3940.117715                       # Average occupied blocks per requestor
system.l2.tags.occ_percent::.writebacks      0.003216                       # Average percentage of cache occupancy
system.l2.tags.occ_percent::.cpu.inst        0.067887                       # Average percentage of cache occupancy
system.l2.tags.occ_percent::.cpu.data        0.240486                       # Average percentage of cache occupancy
system.l2.tags.occ_percent::total            0.311589                       # Average percentage of cache occupancy
system.l2.tags.occ_task_id_blocks::1024          6023                       # Occupied blocks per task id
system.l2.tags.occ_task_id_percent::1024     0.367615                       # Percentage of cache occupancy per task id
system.l2.tags.pwrStateResidencyTicks::UNDEFINED  84346958000                       # Cumulative time (in ticks) in various power states
system.l2.tags.sampled_refs                      6523                       # Sample count of references to valid blocks.
system.l2.tags.tag_accesses                     17050                       # Number of tag accesses
system.l2.tags.tagsinuse                  5105.074110                       # Cycle average of tags in use
system.l2.tags.total_refs                       10465                       # Total number of references to valid blocks.
system.l2.tags.warmup_cycle                         0                       # Cycle when the warmup percentage was hit.
system.l2.writebacks::.writebacks                  20                       # number of writebacks
system.l2.writebacks::total                        20                       # number of writebacks
system.mem_ctrls.avgBusLat                        nan                       # Average bus latency per DRAM burst
system.mem_ctrls.avgGap                           nan                       # Average gap between requests
system.mem_ctrls.avgMemAccLat                     nan                       # Average memory access latency per DRAM burst
system.mem_ctrls.avgQLat                          nan                       # Average queueing delay per DRAM burst
system.mem_ctrls.avgRdBW                         0.00                       # Average DRAM read bandwidth in MiByte/s
system.mem_ctrls.avgRdBWSys                      0.00                       # Average system read bandwidth in MiByte/s
system.mem_ctrls.avgRdQLen                       0.00                       # Average read queue length when enqueuing
system.mem_ctrls.avgWrBW                         0.00                       # Average achieved write bandwidth in MiByte/s
system.mem_ctrls.avgWrBWSys                      0.00                       # Average system write bandwidth in MiByte/s
system.mem_ctrls.avgWrQLen                       0.00                       # Average write queue length when enqueuing
system.mem_ctrls.busUtil                         0.00                       # Data bus utilization in percentage
system.mem_ctrls.busUtilRead                     0.00                       # Data bus utilization in percentage for reads
system.mem_ctrls.busUtilWrite                    0.00                       # Data bus utilization in percentage for writes
system.mem_ctrls.bw_inst_read::.cpu.inst      1027376                       # Instruction read bandwidth from this memory (bytes/s)
system.mem_ctrls.bw_inst_read::total          1027376                       # Instruction read bandwidth from this memory (bytes/s)
system.mem_ctrls.bw_read::.cpu.inst           1027376                       # Total read bandwidth from this memory (bytes/s)
system.mem_ctrls.bw_read::.cpu.data           3833310                       # Total read bandwidth from this memory (bytes/s)
system.mem_ctrls.bw_read::total               4860685                       # Total read bandwidth from this memory (bytes/s)
system.mem_ctrls.bw_total::.writebacks          15175                       # Total bandwidth to/from this memory (bytes/s)
system.mem_ctrls.bw_total::.cpu.inst          1027376                       # Total bandwidth to/from this memory (bytes/s)
system.mem_ctrls.bw_total::.cpu.data          3833310                       # Total bandwidth to/from this memory (bytes/s)
system.mem_ctrls.bw_total::total              4875860                       # Total bandwidth to/from this memory (bytes/s)
system.mem_ctrls.bw_write::.writebacks          15175                       # Write bandwidth from this memory (bytes/s)
system.mem_ctrls.bw_write::total                15175                       # Write bandwidth from this memory (bytes/s)
system.mem_ctrls.bytesReadDRAM                      0                       # Total number of bytes read from DRAM
system.mem_ctrls.bytesReadSys                       0                       # Total read bytes from the system interface side
system.mem_ctrls.bytesReadWrQ                       0                       # Total number of bytes read from write queue
system.mem_ctrls.bytesWritten                       0                       # Total number of bytes written to DRAM
system.mem_ctrls.bytesWrittenSys                    0                       # Total written bytes from the system interface side
system.mem_ctrls.bytes_inst_read::.cpu.inst        86656                       # Number of instructions bytes read from this memory
system.mem_ctrls.bytes_inst_read::total         86656                       # Number of instructions bytes read from this memory
system.mem_ctrls.bytes_read::.cpu.inst          86656                       # Number of bytes read from this memory
system.mem_ctrls.bytes_read::.cpu.data         323328                       # Number of bytes read from this memory
system.mem_ctrls.bytes_read::total             409984                       # Number of bytes read from this memory
system.mem_ctrls.bytes_written::.writebacks         1280                       # Number of bytes written to this memory
system.mem_ctrls.bytes_written::total            1280                       # Number of bytes written to this memory
system.mem_ctrls.mergedWrBursts                     0                       # Number of DRAM write bursts merged with an existing one
system.mem_ctrls.neitherReadNorWriteReqs            0                       # Number of requests that are neither read nor write
system.mem_ctrls.numRdRetry                         0                       # Number of times read queue was full causing retry
system.mem_ctrls.numReadWriteTurnArounds            0                       # Number of turnarounds from READ to WRITE
system.mem_ctrls.numStayReadState                   0                       # Number of times bus staying in READ state
system.mem_ctrls.numStayWriteState                  0                       # Number of times bus staying in WRITE state
system.mem_ctrls.numWrRetry                         0                       # Number of times write queue was full causing retry
system.mem_ctrls.numWriteReadTurnArounds            0                       # Number of turnarounds from WRITE to READ
system.mem_ctrls.num_reads::.cpu.inst            1354                       # Number of read requests responded to by this memory
system.mem_ctrls.num_reads::.cpu.data            5052                       # Number of read requests responded to by this memory
system.mem_ctrls.num_reads::total                6406                       # Number of read requests responded to by this memory
system.mem_ctrls.num_writes::.writebacks           20                       # Number of write requests responded to by this memory
system.mem_ctrls.num_writes::total                 20                       # Number of write requests responded to by this memory
system.mem_ctrls.pageHitRate                      nan                       # Row buffer hit rate, read and write combined
system.mem_ctrls.peakBW                      12800.00                       # Theoretical peak bandwidth in MiByte/s
system.mem_ctrls.perBankRdBursts::0                 0                       # Per bank write bursts
system.mem_ctrls.perBankRdBursts::1                 0                       # Per bank write bursts
system.mem_ctrls.perBankRdBursts::2                 0                       # Per bank write bursts
system.mem_ctrls.perBankRdBursts::3                 0                       # Per bank write bursts
system.mem_ctrls.perBankRdBursts::4                 0                       # Per bank write bursts
system.mem_ctrls.perBankRdBursts::5                 0                       # Per bank write bursts
system.mem_ctrls.perBankRdBursts::6                 0                       # Per bank write bursts
system.mem_ctrls.perBankRdBursts::7                 0                       # Per bank write bursts
system.mem_ctrls.perBankRdBursts::8                 0                       # Per bank write bursts
system.mem_ctrls.perBankRdBursts::9                 0                       # Per bank write bursts
system.mem_ctrls.perBankRdBursts::10                0                       # Per bank write bursts
system.mem_ctrls.perBankRdBursts::11                0                       # Per bank write bursts
system.mem_ctrls.perBankRdBursts::12                0                       # Per bank write bursts
system.mem_ctrls.perBankRdBursts::13                0                       # Per bank write bursts
system.mem_ctrls.perBankRdBursts::14                0                       # Per bank write bursts
system.mem_ctrls.perBankRdBursts::15                0                       # Per bank write bursts
system.mem_ctrls.perBankWrBursts::0                 0                       # Per bank write bursts
system.mem_ctrls.perBankWrBursts::1                 0                       # Per bank write bursts
system.mem_ctrls.perBankWrBursts::2                 0                       # Per bank write bursts
system.mem_ctrls.perBankWrBursts::3                 0                       # Per bank write bursts
system.mem_ctrls.perBankWrBursts::4                 0                       # Per bank write bursts
system.mem_ctrls.perBankWrBursts::5                 0                       # Per bank write bursts
system.mem_ctrls.perBankWrBursts::6                 0                       # Per bank write bursts
system.mem_ctrls.perBankWrBursts::7                 0                       # Per bank write bursts
system.mem_ctrls.perBankWrBursts::8                 0                       # Per bank write bursts
system.mem_ctrls.perBankWrBursts::9                 0                       # Per bank write bursts
system.mem_ctrls.perBankWrBursts::10                0                       # Per bank write bursts
system.mem_ctrls.perBankWrBursts::11                0                       # Per bank write bursts
system.mem_ctrls.perBankWrBursts::12                0                       # Per bank write bursts
system.mem_ctrls.perBankWrBursts::13                0                       # Per bank write bursts
system.mem_ctrls.perBankWrBursts::14                0                       # Per bank write bursts
system.mem_ctrls.perBankWrBursts::15                0                       # Per bank write bursts
system.mem_ctrls.priorityMaxLatency      0.000000000000                       # per QoS priority maximum request to response latency (s)
system.mem_ctrls.priorityMinLatency      0.000000000000                       # per QoS priority minimum request to response latency (s)
system.mem_ctrls.pwrStateResidencyTicks::UNDEFINED  84346958000                       # Cumulative time (in ticks) in various power states
system.mem_ctrls.rdQLenPdf::0                       0                       # What read queue length does an incoming req see
system.mem_ctrls.rdQLenPdf::1                       0                       # What read queue length does an incoming req see
system.mem_ctrls.rdQLenPdf::2                       0                       # What read queue length does an incoming req see
system.mem_ctrls.rdQLenPdf::3                       0                       # What read queue length does an incoming req see
system.mem_ctrls.rdQLenPdf::4                       0                       # What read queue length does an incoming req see
system.mem_ctrls.rdQLenPdf::5                       0                       # What read queue length does an incoming req see
system.mem_ctrls.rdQLenPdf::6                       0                       # What read queue length does an incoming req see
system.mem_ctrls.rdQLenPdf::7                       0                       # What read queue length does an incoming req see
system.mem_ctrls.rdQLenPdf::8                       0                       # What read queue length does an incoming req see
system.mem_ctrls.rdQLenPdf::9                       0                       # What read queue length does an incoming req see
system.mem_ctrls.rdQLenPdf::10                      0                       # What read queue length does an incoming req see
system.mem_ctrls.rdQLenPdf::11                      0                       # What read queue length does an incoming req see
system.mem_ctrls.rdQLenPdf::12                      0                       # What read queue length does an incoming req see
system.mem_ctrls.rdQLenPdf::13                      0                       # What read queue length does an incoming req see
system.mem_ctrls.rdQLenPdf::14                      0                       # What read queue length does an incoming req see
system.mem_ctrls.rdQLenPdf::15                      0                       # What read queue length does an incoming req see
system.mem_ctrls.rdQLenPdf::16                      0                       # What read queue length does an incoming req see
system.mem_ctrls.rdQLenPdf::17                      0                       # What read queue length does an incoming req see
system.mem_ctrls.rdQLenPdf::18                      0                       # What read queue length does an incoming req see
system.mem_ctrls.rdQLenPdf::19                      0                       # What read queue length does an incoming req see
system.mem_ctrls.rdQLenPdf::20                      0                       # What read queue length does an incoming req see
system.mem_ctrls.rdQLenPdf::21                      0                       # What read queue length does an incoming req see
system.mem_ctrls.rdQLenPdf::22                      0                       # What read queue length does an incoming req see
system.mem_ctrls.rdQLenPdf::23                      0                       # What read queue length does an incoming req see
system.mem_ctrls.rdQLenPdf::24                      0                       # What read queue length does an incoming req see
system.mem_ctrls.rdQLenPdf::25                      0                       # What read queue length does an incoming req see
system.mem_ctrls.rdQLenPdf::26                      0                       # What read queue length does an incoming req see
system.mem_ctrls.rdQLenPdf::27                      0                       # What read queue length does an incoming req see
system.mem_ctrls.rdQLenPdf::28                      0                       # What read queue length does an incoming req see
system.mem_ctrls.rdQLenPdf::29                      0                       # What read queue length does an incoming req see
system.mem_ctrls.rdQLenPdf::30                      0                       # What read queue length does an incoming req see
system.mem_ctrls.rdQLenPdf::31                      0                       # What read queue length does an incoming req see
system.mem_ctrls.readBursts                         0                       # Number of DRAM read bursts, including those serviced by the write queue
system.mem_ctrls.readPktSize::0                     0                       # Read request sizes (log2)
system.mem_ctrls.readPktSize::1                     0                       # Read request sizes (log2)
system.mem_ctrls.readPktSize::2                     0                       # Read request sizes (log2)
system.mem_ctrls.readPktSize::3                     0                       # Read request sizes (log2)
system.mem_ctrls.readPktSize::4                     0                       # Read request sizes (log2)
system.mem_ctrls.readPktSize::5                     0                       # Read request sizes (log2)
system.mem_ctrls.readPktSize::6                     0                       # Read request sizes (log2)
system.mem_ctrls.readReqs                           0                       # Number of read requests accepted
system.mem_ctrls.readRowHitRate                   nan                       # Row buffer hit rate for reads
system.mem_ctrls.readRowHits                        0                       # Number of row buffer hits during reads
system.mem_ctrls.servicedByWrQ                      0                       # Number of DRAM read bursts serviced by the write queue
system.mem_ctrls.totBusLat                          0                       # Total ticks spent in databus transfers
system.mem_ctrls.totGap                             0                       # Total gap between requests
system.mem_ctrls.totMemAccLat                       0                       # Total ticks spent from burst creation until serviced by the DRAM
system.mem_ctrls.totQLat                            0                       # Total ticks spent queuing
system.mem_ctrls.wrQLenPdf::0                       0                       # What write queue length does an incoming req see
system.mem_ctrls.wrQLenPdf::1                       0                       # What write queue length does an incoming req see
system.mem_ctrls.wrQLenPdf::2                       0                       # What write queue length does an incoming req see
system.mem_ctrls.wrQLenPdf::3                       0                       # What write queue length does an incoming req see
system.mem_ctrls.wrQLenPdf::4                       0                       # What write queue length does an incoming req see
system.mem_ctrls.wrQLenPdf::5                       0                       # What write queue length does an incoming req see
system.mem_ctrls.wrQLenPdf::6                       0                       # What write queue length does an incoming req see
system.mem_ctrls.wrQLenPdf::7                       0                       # What write queue length does an incoming req see
system.mem_ctrls.wrQLenPdf::8                       0                       # What write queue length does an incoming req see
system.mem_ctrls.wrQLenPdf::9                       0                       # What write queue length does an incoming req see
system.mem_ctrls.wrQLenPdf::10                      0                       # What write queue length does an incoming req see
system.mem_ctrls.wrQLenPdf::11                      0                       # What write queue length does an incoming req see
system.mem_ctrls.wrQLenPdf::12                      0                       # What write queue length does an incoming req see
system.mem_ctrls.wrQLenPdf::13                      0                       # What write queue length does an incoming req see
system.mem_ctrls.wrQLenPdf::14                      0                       # What write queue length does an incoming req see
system.mem_ctrls.wrQLenPdf::15                      0                       # What write queue length does an incoming req see
system.mem_ctrls.wrQLenPdf::16                      0                       # What write queue length does an incoming req see
system.mem_ctrls.wrQLenPdf::17                      0                       # What write queue length does an incoming req see
system.mem_ctrls.wrQLenPdf::18                      0                       # What write queue length does an incoming req see
system.mem_ctrls.wrQLenPdf::19                      0                       # What write queue length does an incoming req see
system.mem_ctrls.wrQLenPdf::20                      0                       # What write queue length does an incoming req see
system.mem_ctrls.wrQLenPdf::21                      0                       # What write queue length does an incoming req see
system.mem_ctrls.wrQLenPdf::22                      0                       # What write queue length does an incoming req see
system.mem_ctrls.wrQLenPdf::23                      0                       # What write queue length does an incoming req see
system.mem_ctrls.wrQLenPdf::24                      0                       # What write queue length does an incoming req see
system.mem_ctrls.wrQLenPdf::25                      0                       # What write queue length does an incoming req see
system.mem_ctrls.wrQLenPdf::26                      0                       # What write queue length does an incoming req see
system.mem_ctrls.wrQLenPdf::27                      0                       # What write queue length does an incoming req see
system.mem_ctrls.wrQLenPdf::28                      0                       # What write queue length does an incoming req see
system.mem_ctrls.wrQLenPdf::29                      0                       # What write queue length does an incoming req see
system.mem_ctrls.wrQLenPdf::30                      0                       # What write queue length does an incoming req see
system.mem_ctrls.wrQLenPdf::31                      0                       # What write queue length does an incoming req see
system.mem_ctrls.wrQLenPdf::32                      0                       # What write queue length does an incoming req see
system.mem_ctrls.wrQLenPdf::33                      0                       # What write queue length does an incoming req see
system.mem_ctrls.wrQLenPdf::34                      0                       # What write queue length does an incoming req see
system.mem_ctrls.wrQLenPdf::35                      0                       # What write queue length does an incoming req see
system.mem_ctrls.wrQLenPdf::36                      0                       # What write queue length does an incoming req see
system.mem_ctrls.wrQLenPdf::37                      0                       # What write queue length does an incoming req see
system.mem_ctrls.wrQLenPdf::38                      0                       # What write queue length does an incoming req see
system.mem_ctrls.wrQLenPdf::39                      0                       # What write queue length does an incoming req see
system.mem_ctrls.wrQLenPdf::40                      0                       # What write queue length does an incoming req see
system.mem_ctrls.wrQLenPdf::41                      0                       # What write queue length does an incoming req see
system.mem_ctrls.wrQLenPdf::42                      0                       # What write queue length does an incoming req see
system.mem_ctrls.wrQLenPdf::43                      0                       # What write queue length does an incoming req see
system.mem_ctrls.wrQLenPdf::44                      0                       # What write queue length does an incoming req see
system.mem_ctrls.wrQLenPdf::45                      0                       # What write queue length does an incoming req see
system.mem_ctrls.wrQLenPdf::46                      0                       # What write queue length does an incoming req see
system.mem_ctrls.wrQLenPdf::47                      0                       # What write queue length does an incoming req see
system.mem_ctrls.wrQLenPdf::48                      0                       # What write queue length does an incoming req see
system.mem_ctrls.wrQLenPdf::49                      0                       # What write queue length does an incoming req see
system.mem_ctrls.wrQLenPdf::50                      0                       # What write queue length does an incoming req see
system.mem_ctrls.wrQLenPdf::51                      0                       # What write queue length does an incoming req see
system.mem_ctrls.wrQLenPdf::52                      0                       # What write queue length does an incoming req see
system.mem_ctrls.wrQLenPdf::53                      0                       # What write queue length does an incoming req see
system.mem_ctrls.wrQLenPdf::54                      0                       # What write queue length does an incoming req see
system.mem_ctrls.wrQLenPdf::55                      0                       # What write queue length does an incoming req see
system.mem_ctrls.wrQLenPdf::56                      0                       # What write queue length does an incoming req see
system.mem_ctrls.wrQLenPdf::57                      0                       # What write queue length does an incoming req see
system.mem_ctrls.wrQLenPdf::58                      0                       # What write queue length does an incoming req see
system.mem_ctrls.wrQLenPdf::59                      0                       # What write queue length does an incoming req see
system.mem_ctrls.wrQLenPdf::60                      0                       # What write queue length does an incoming req see
system.mem_ctrls.wrQLenPdf::61                      0                       # What write queue length does an incoming req see
system.mem_ctrls.wrQLenPdf::62                      0                       # What write queue length does an incoming req see
system.mem_ctrls.wrQLenPdf::63                      0                       # What write queue length does an incoming req see
system.mem_ctrls.writeBursts                        0                       # Number of DRAM write bursts, including those merged in the write queue
system.mem_ctrls.writePktSize::0                    0                       # Write request sizes (log2)
system.mem_ctrls.writePktSize::1                    0                       # Write request sizes (log2)
system.mem_ctrls.writePktSize::2                    0                       # Write request sizes (log2)
system.mem_ctrls.writePktSize::3                    0                       # Write request sizes (log2)
system.mem_ctrls.writePktSize::4                    0                       # Write request sizes (log2)
system.mem_ctrls.writePktSize::5                    0                       # Write request sizes (log2)
system.mem_ctrls.writePktSize::6                    0                       # Write request sizes (log2)
system.mem_ctrls.writeReqs                          0                       # Number of write requests accepted
system.mem_ctrls.writeRowHitRate                  nan                       # Row buffer hit rate for writes
system.mem_ctrls.writeRowHits                       0                       # Number of row buffer hits during writes
system.mem_ctrls_0.actBackEnergy                    0                       # Energy for active background per rank (pJ)
system.mem_ctrls_0.actEnergy                        0                       # Energy for activate commands per rank (pJ)
system.mem_ctrls_0.actPowerDownEnergy               0                       # Energy for active power-down per rank (pJ)
system.mem_ctrls_0.averagePower            384.000003                       # Core power per rank (mW)
system.mem_ctrls_0.memoryStateTime::IDLE  84346958000                       # Time in different power states
system.mem_ctrls_0.memoryStateTime::REF             0                       # Time in different power states
system.mem_ctrls_0.memoryStateTime::SREF            0                       # Time in different power states
system.mem_ctrls_0.memoryStateTime::PRE_PDN            0                       # Time in different power states
system.mem_ctrls_0.memoryStateTime::ACT             0                       # Time in different power states
system.mem_ctrls_0.memoryStateTime::ACT_PDN            0                       # Time in different power states
system.mem_ctrls_0.preBackEnergy          32389232160                       # Energy for precharge background per rank (pJ)
system.mem_ctrls_0.preEnergy                        0                       # Energy for precharge commands per rank (pJ)
system.mem_ctrls_0.prePowerDownEnergy               0                       # Energy for precharge power-down per rank (pJ)
system.mem_ctrls_0.readEnergy                       0                       # Energy for read commands per rank (pJ)
system.mem_ctrls_0.refreshEnergy                    0                       # Energy for refresh commands per rank (pJ)
system.mem_ctrls_0.selfRefreshEnergy                0                       # Energy for self refresh per rank (pJ)
system.mem_ctrls_0.totalEnergy            32389232160                       # Total energy per rank (pJ)
system.mem_ctrls_0.totalIdleTime                    0                       # Total Idle time Per DRAM Rank
system.mem_ctrls_0.writeEnergy                      0                       # Energy for write commands per rank (pJ)
system.mem_ctrls_1.actBackEnergy                    0                       # Energy for active background per rank (pJ)
system.mem_ctrls_1.actEnergy                        0                       # Energy for activate commands per rank (pJ)
system.mem_ctrls_1.actPowerDownEnergy               0                       # Energy for active power-down per rank (pJ)
system.mem_ctrls_1.averagePower            384.000003                       # Core power per rank (mW)
system.mem_ctrls_1.memoryStateTime::IDLE  84346958000                       # Time in different power states
system.mem_ctrls_1.memoryStateTime::REF             0                       # Time in different power states
system.mem_ctrls_1.memoryStateTime::SREF            0                       # Time in different power states
system.mem_ctrls_1.memoryStateTime::PRE_PDN            0                       # Time in different power states
system.mem_ctrls_1.memoryStateTime::ACT             0                       # Time in different power states
system.mem_ctrls_1.memoryStateTime::ACT_PDN            0                       # Time in different power states
system.mem_ctrls_1.preBackEnergy          32389232160                       # Energy for precharge background per rank (pJ)
system.mem_ctrls_1.preEnergy                        0                       # Energy for precharge commands per rank (pJ)
system.mem_ctrls_1.prePowerDownEnergy               0                       # Energy for precharge power-down per rank (pJ)
system.mem_ctrls_1.readEnergy                       0                       # Energy for read commands per rank (pJ)
system.mem_ctrls_1.refreshEnergy                    0                       # Energy for refresh commands per rank (pJ)
system.mem_ctrls_1.selfRefreshEnergy                0                       # Energy for self refresh per rank (pJ)
system.mem_ctrls_1.totalEnergy            32389232160                       # Total energy per rank (pJ)
system.mem_ctrls_1.totalIdleTime                    0                       # Total Idle time Per DRAM Rank
system.mem_ctrls_1.writeEnergy                      0                       # Energy for write commands per rank (pJ)
system.membus.pkt_count_system.l2.mem_side::system.mem_ctrls.port        13012                       # Packet count per connected master and slave (bytes)
system.membus.pkt_count_system.l2.mem_side::total        13012                       # Packet count per connected master and slave (bytes)
system.membus.pkt_count::total                  13012                       # Packet count per connected master and slave (bytes)
system.membus.pkt_size_system.l2.mem_side::system.mem_ctrls.port       411264                       # Cumulative packet size per connected master and slave (bytes)
system.membus.pkt_size_system.l2.mem_side::total       411264                       # Cumulative packet size per connected master and slave (bytes)
system.membus.pkt_size::total                  411264                       # Cumulative packet size per connected master and slave (bytes)
system.membus.pwrStateResidencyTicks::UNDEFINED  84346958000                       # Cumulative time (in ticks) in various power states
system.membus.snoopTraffic                          0                       # Total snoop traffic (bytes)
system.membus.snoop_fanout::samples              6406                       # Request fanout histogram
system.membus.snoop_fanout::mean                    0                       # Request fanout histogram
system.membus.snoop_fanout::stdev                   0                       # Request fanout histogram
system.membus.snoop_fanout::underflows              0      0.00%      0.00% # Request fanout histogram
system.membus.snoop_fanout::0                    6406    100.00%    100.00% # Request fanout histogram
system.membus.snoop_fanout::1                       0      0.00%    100.00% # Request fanout histogram
system.membus.snoop_fanout::overflows               0      0.00%    100.00% # Request fanout histogram
system.membus.snoop_fanout::min_value               0                       # Request fanout histogram
system.membus.snoop_fanout::max_value               0                       # Request fanout histogram
system.membus.snoop_fanout::total                6406                       # Request fanout histogram
system.membus.snoop_filter.hit_multi_requests            0                       # Number of requests hitting in the snoop filter with multiple (>1) holders of the requested data.
system.membus.snoop_filter.hit_multi_snoops            0                       # Number of snoops hitting in the snoop filter with multiple (>1) holders of the requested data.
system.membus.snoop_filter.hit_single_requests          200                       # Number of requests hitting in the snoop filter with a single holder of the requested data.
system.membus.snoop_filter.hit_single_snoops            0                       # Number of snoops hitting in the snoop filter with a single holder of the requested data.
system.membus.snoop_filter.tot_requests          6606                       # Total number of requests made to the snoop filter.
system.membus.snoop_filter.tot_snoops               0                       # Total number of snoops made to the snoop filter.
system.membus.snoops                                0                       # Total snoops (count)
system.membus.trans_dist::ReadResp               2927                       # Transaction distribution
system.membus.trans_dist::WritebackDirty           20                       # Transaction distribution
system.membus.trans_dist::CleanEvict              180                       # Transaction distribution
system.membus.trans_dist::ReadExReq              3479                       # Transaction distribution
system.membus.trans_dist::ReadExResp             3479                       # Transaction distribution
system.membus.trans_dist::ReadSharedReq          2927                       # Transaction distribution
system.pwrStateResidencyTicks::UNDEFINED  84346958000                       # Cumulative time (in ticks) in various power states
system.tol2bus.pkt_count_system.cpu.icache.mem_side::system.l2.cpu_side         5297                       # Packet count per connected master and slave (bytes)
system.tol2bus.pkt_count_system.cpu.dcache.mem_side::system.l2.cpu_side        12994                       # Packet count per connected master and slave (bytes)
system.tol2bus.pkt_count::total                 18291                       # Packet count per connected master and slave (bytes)
system.tol2bus.pkt_size_system.cpu.icache.mem_side::system.l2.cpu_side       206720                       # Cumulative packet size per connected master and slave (bytes)
system.tol2bus.pkt_size_system.cpu.dcache.mem_side::system.l2.cpu_side       427648                       # Cumulative packet size per connected master and slave (bytes)
system.tol2bus.pkt_size::total                 634368                       # Cumulative packet size per connected master and slave (bytes)
system.tol2bus.pwrStateResidencyTicks::UNDEFINED  84346958000                       # Cumulative time (in ticks) in various power states
system.tol2bus.snoopTraffic                      1280                       # Total snoop traffic (bytes)
system.tol2bus.snoop_fanout::samples             8263                       # Request fanout histogram
system.tol2bus.snoop_fanout::mean            0.043931                       # Request fanout histogram
system.tol2bus.snoop_fanout::stdev           0.204954                       # Request fanout histogram
system.tol2bus.snoop_fanout::underflows             0      0.00%      0.00% # Request fanout histogram
system.tol2bus.snoop_fanout::0                   7900     95.61%     95.61% # Request fanout histogram
system.tol2bus.snoop_fanout::1                    363      4.39%    100.00% # Request fanout histogram
system.tol2bus.snoop_fanout::2                      0      0.00%    100.00% # Request fanout histogram
system.tol2bus.snoop_fanout::3                      0      0.00%    100.00% # Request fanout histogram
system.tol2bus.snoop_fanout::4                      0      0.00%    100.00% # Request fanout histogram
system.tol2bus.snoop_fanout::overflows              0      0.00%    100.00% # Request fanout histogram
system.tol2bus.snoop_fanout::min_value              0                       # Request fanout histogram
system.tol2bus.snoop_fanout::max_value              1                       # Request fanout histogram
system.tol2bus.snoop_fanout::total               8263                       # Request fanout histogram
system.tol2bus.snoop_filter.hit_multi_requests            1                       # Number of requests hitting in the snoop filter with multiple (>1) holders of the requested data.
system.tol2bus.snoop_filter.hit_multi_snoops            0                       # Number of snoops hitting in the snoop filter with multiple (>1) holders of the requested data.
system.tol2bus.snoop_filter.hit_single_requests         2765                       # Number of requests hitting in the snoop filter with a single holder of the requested data.
system.tol2bus.snoop_filter.hit_single_snoops          362                       # Number of snoops hitting in the snoop filter with a single holder of the requested data.
system.tol2bus.snoop_filter.tot_requests        10528                       # Total number of requests made to the snoop filter.
system.tol2bus.snoop_filter.tot_snoops            362                       # Total number of snoops made to the snoop filter.
system.tol2bus.snoops                             500                       # Total snoops (count)
system.tol2bus.trans_dist::ReadResp              4007                       # Transaction distribution
system.tol2bus.trans_dist::WritebackDirty          986                       # Transaction distribution
system.tol2bus.trans_dist::WritebackClean         1163                       # Transaction distribution
system.tol2bus.trans_dist::CleanEvict             616                       # Transaction distribution
system.tol2bus.trans_dist::ReadExReq             3756                       # Transaction distribution
system.tol2bus.trans_dist::ReadExResp            3756                       # Transaction distribution
system.tol2bus.trans_dist::ReadCleanReq          2067                       # Transaction distribution
system.tol2bus.trans_dist::ReadSharedReq         1940                       # Transaction distribution
system.voltage_domain.voltage                       1                       # Voltage in Volts

---------- End Simulation Statistics   ----------
